@<TRIPOS>MOLECULE
****
45 48 1 0 0
SMALL
USER_CHARGES


@<TRIPOS>ATOM
      1 C          -4.5323   -0.7764   -0.0521 C.2       1     ****    0.0000
      2 C          -4.8701    0.5031   -0.3789 C.2       1     ****    0.0000
      3 C          -3.2795   -1.1093    0.3360 C.ar      1     ****    0.0000
      4 C          -5.4465   -1.7703   -0.2120 C.ar      1     ****    0.0000
      5 C          -3.8142    1.4273   -0.9904 C.3       1     ****    0.0000
      6 C          -6.1298    0.9980   -0.2158 C.ar      1     ****    0.0000
      7 C          -5.4773   -2.8740    0.5633 C.ar      1     ****    0.0000
      8 C          -6.3960   -3.8389    0.4010 C.ar      1     ****    0.0000
      9 C          -7.3368   -3.7592   -0.5524 C.ar      1     ****    0.0000
     10 C          -7.3179   -2.6685   -1.3333 C.ar      1     ****    0.0000
     11 C          -6.4000   -1.7042   -1.1663 C.ar      1     ****    0.0000
     12 C          -6.5516    2.1245   -0.8315 C.ar      1     ****    0.0000
     13 C          -7.7851    2.6282   -0.6657 C.ar      1     ****    0.0000
     14 C          -8.6574    2.0255    0.1518 C.ar      1     ****    0.0000
     15 C          -8.2653    0.9247    0.8054 C.ar      1     ****    0.0000
     16 C          -7.0276    0.4367    0.6250 C.ar      1     ****    0.0000
     17 N          -3.6917    2.7080   -0.2702 N.ar      1     ****    0.0000
     18 C          -3.8709    2.8789    0.9719 C.ar      1     ****    0.0000
     19 N          -3.7058    4.0985    1.2707 N.ar      1     ****    0.0000
     20 C          -3.4244    4.6760    0.1770 C.ar      1     ****    0.0000
     21 C          -3.4061    3.8014   -0.8403 C.ar      1     ****    0.0000
     22 O          -8.2745   -4.7295   -0.7209 O.3       1     ****    0.0000
     23 C          -2.3092   -0.3428    0.8640 C.ar      1     ****    0.0000
     24 O          -1.2754   -0.9581    1.1133 O.2       1     ****    0.0000
     25 C          -1.4387   -2.1314    0.7927 C.ar      1     ****    0.0000
     26 C          -2.6671   -2.3072    0.2885 C.ar      1     ****    0.0000
     27 O          -0.4572   -3.0603    0.9139 O.3       1     ****    0.0000
     28 H          -2.8095    0.9702   -1.1065 H         1     ****    0.0000
     29 H          -4.1007    1.5945   -2.0553 H         1     ****    0.0000
     30 H          -4.7847   -2.9991    1.4120 H         1     ****    0.0000
     31 H          -6.3953   -4.7113    1.0759 H         1     ****    0.0000
     32 H          -8.0695   -2.5695   -2.1350 H         1     ****    0.0000
     33 H          -6.4424   -0.8647   -1.8816 H         1     ****    0.0000
     34 H          -5.9162    2.6834   -1.5354 H         1     ****    0.0000
     35 H          -8.0890    3.5422   -1.2038 H         1     ****    0.0000
     36 H          -9.6695    2.4371    0.2985 H         1     ****    0.0000
     37 H          -8.9587    0.4348    1.5101 H         1     ****    0.0000
     38 H          -6.7740   -0.4321    1.2533 H         1     ****    0.0000
     39 H          -4.1344    2.0845    1.6787 H         1     ****    0.0000
     40 H          -3.2299    5.7543    0.1066 H         1     ****    0.0000
     41 H          -3.2100    3.9315   -1.9086 H         1     ****    0.0000
     42 H          -8.8668   -4.4721   -1.4459 H         1     ****    0.0000
     43 H          -2.2855    0.7156    1.1412 H         1     ****    0.0000
     44 H          -3.0406   -3.2599   -0.1057 H         1     ****    0.0000
     45 H           0.4087   -2.6239    0.8683 H         1     ****    0.0000
@<TRIPOS>BOND
     1     1     2     2
     2     1     3     1
     3     1     4     1
     4     2     5     1
     5     2     6     1
     6     3    23     2
     7     3    26     1
     8     4     7     1
     9     4    11     2
    10     5    17     1
    11     5    28     1
    12     5    29     1
    13     6    12     1
    14     6    16     2
    15     7     8     2
    16     7    30     1
    17     8     9     1
    18     8    31     1
    19     9    10     2
    20     9    22     1
    21    10    11     1
    22    10    32     1
    23    11    33     1
    24    12    13     2
    25    12    34     1
    26    13    14     1
    27    13    35     1
    28    14    15     2
    29    14    36     1
    30    15    16     1
    31    15    37     1
    32    16    38     1
    33    17    18     1
    34    17    21     1
    35    18    19     2
    36    18    39     1
    37    19    20     1
    38    20    21     2
    39    20    40     1
    40    21    41     1
    41    22    42     1
    42    23    24     1
    43    23    43     1
    44    24    25     1
    45    25    26     2
    46    25    27     1
    47    26    44     1
    48    27    45     1
