REMARK  7 active torsions:
REMARK  status: ('A' for Active; 'I' for Inactive)
REMARK    1  A    between atoms: C_1  and  C_4 
REMARK    2  A    between atoms: C_1  and  C_3 
REMARK    3  A    between atoms: C_2  and  C_5 
REMARK    4  A    between atoms: C_2  and  C_6 
REMARK    5  A    between atoms: C_5  and  N_17 
REMARK    6  A    between atoms: C_9  and  O_22 
REMARK    7  A    between atoms: C_25  and  O_27 
ROOT
HETATM    1  C   ***     1     -10.403  48.863 332.591  1.00  0.00    -0.005 C 
HETATM    2  C   ***     1     -11.306  48.912 331.572  1.00  0.00    -0.018 C 
ENDROOT
BRANCH   1   3
HETATM    3  C   ***     1      -9.128  48.465 332.335  1.00  0.00    -0.024 A 
HETATM    4  C   ***     1      -8.553  48.674 331.131  1.00  0.00     0.015 A 
HETATM    5  C   ***     1      -7.300  48.279 330.855  1.00  0.00     0.037 A 
HETATM    6  C   ***     1      -6.547  47.651 331.769  1.00  0.00     0.065 A 
HETATM    7  C   ***     1      -7.105  47.436 332.971  1.00  0.00     0.037 A 
HETATM    8  C   ***     1      -8.357  47.834 333.245  1.00  0.00     0.015 A 
BRANCH   6   9
HETATM    9  O   ***     1      -5.281  47.246 331.481  1.00  0.00    -0.361 OA
HETATM   10  H   ***     1      -5.078  47.480 330.561  1.00  0.00     0.217 HD
ENDBRANCH   6   9
ENDBRANCH   1   3
BRANCH   1  11
HETATM   11  C   ***     1     -10.706  49.292 333.838  1.00  0.00     0.003 A 
HETATM   12  C   ***     1     -11.903  49.428 334.435  1.00  0.00     0.157 A 
HETATM   13  O   ***     1     -11.835  49.843 335.589  1.00  0.00    -0.299 OA
HETATM   14  C   ***     1     -10.653  50.020 335.865  1.00  0.00     0.183 A 
HETATM   15  C   ***     1      -9.880  49.705 334.817  1.00  0.00     0.078 A 
BRANCH  14  16
HETATM   16  O   ***     1     -10.253  50.512 337.065  1.00  0.00    -0.341 OA
HETATM   17  H   ***     1     -10.963  51.053 337.445  1.00  0.00     0.220 HD
ENDBRANCH  14  16
ENDBRANCH   1  11
BRANCH   2  18
HETATM   18  C   ***     1     -12.365  50.017 331.558  1.00  0.00     0.169 C 
BRANCH  18  19
HETATM   19  N   ***     1     -13.735  49.492 331.411  1.00  0.00    -0.346 N 
HETATM   20  C   ***     1     -14.153  48.381 331.852  1.00  0.00     0.209 A 
HETATM   21  N   ***     1     -15.371  48.222 331.543  1.00  0.00    -0.255 NA
HETATM   22  C   ***     1     -15.691  49.264 330.895  1.00  0.00     0.135 A 
HETATM   23  C   ***     1     -14.653  50.108 330.793  1.00  0.00     0.111 A 
ENDBRANCH  18  19
ENDBRANCH   2  18
BRANCH   2  24
HETATM   24  C   ***     1     -11.293  48.032 330.531  1.00  0.00    -0.027 A 
HETATM   25  C   ***     1     -11.950  48.267 329.374  1.00  0.00     0.012 A 
HETATM   26  C   ***     1     -11.955  47.400 328.349  1.00  0.00     0.001 A 
HETATM   27  C   ***     1     -11.306  46.233 328.447  1.00  0.00     0.000 A 
HETATM   28  C   ***     1     -10.670  45.950 329.590  1.00  0.00     0.001 A 
HETATM   29  C   ***     1     -10.677  46.831 330.603  1.00  0.00     0.012 A 
ENDBRANCH   2  24
TORSDOF 7
